LTspice 24.0.12 for Windows
Circuit: * C:\Users\Raghuveer P M\Downloads\Neurotransistor-main\Neurotransistor-main\memNeuroTransistor.asc
Start Time: Sun Jan 19 11:02:27 2025
solver = Normal
Maximum thread count: 12
tnom = 27
temp = 27
method = modified trap
Direct Newton iteration for .op point succeeded.
Total elapsed time: 10.385 seconds.

