LTspice 24.0.12 for Windows
Circuit: ** Memristor-based memcapacitive neurotransistor
Start Time: Sun Jan 19 11:02:13 2025
Fatal Error: No analysis request found.
