LTspice 24.0.12 for Windows
Circuit: * E:\Winter Semester 2024\NNMHA\Project\Neuro-transistor-Simulation-with-Memristor-based-Memcapacitor-using-LTSPICE\Neurotransistor-main\Neurotransistor-main\memNeuroTransistor.asc
Start Time: Sun Jan 19 11:34:24 2025
solver = Normal
Maximum thread count: 12
tnom = 27
temp = 27
method = modified trap
Direct Newton iteration for .op point succeeded.
Total elapsed time: 8.964 seconds.

