LTspice 24.0.12 for Windows
Circuit: * C:\Users\dhanu\OneDrive\Documents\My files\GITHUB\Neuro-transistor-Simulation-with-Memristor-based-Memcapacitor-using-LTSPICE\src\base\Pixelspikes.asc
Start Time: Sat Feb  1 16:52:36 2025
solver = Normal
Maximum thread count: 16
tnom = 27
temp = 27
method = modified trap
.OP point found by inspection.
Total elapsed time: 0.111 seconds.

