LTspice 24.0.12 for Windows
Circuit: * C:\Users\bibin\OneDrive\Desktop\SUBJECTS\NNMHA\Neuro-transistor-Simulation-with-Memristor-based-Memcapacitor-using-LTSPICE\Neurotransistor-main\memNeuroTransistor.asc
Start Time: Sun Jan 19 12:55:45 2025
solver = Normal
Maximum thread count: 16
tnom = 27
temp = 27
method = modified trap
Direct Newton iteration for .op point succeeded.
Total elapsed time: 12.579 seconds.

