LTspice 24.0.12 for Windows
Circuit: * C:\Users\dhanu\OneDrive\Documents\My files\GITHUB\Neuro-transistor-Simulation-with-Memristor-based-Memcapacitor-using-LTSPICE\src\Task 11\3x3_neuro memrsitor.asc
Start Time: Thu Jan 23 21:06:58 2025
Unknown model type "level" -- ignored
solver = Normal
Maximum thread count: 16
tnom = 27
temp = 27
method = modified trap
Direct Newton iteration for .op point succeeded.
