LTspice 24.0.12 for Windows
Circuit: * C:\Users\dhanu\OneDrive\Documents\My files\GITHUB\Neuro-transistor-Simulation-with-Memristor-based-Memcapacitor-using-LTSPICE\src\task9\neuro_memristor _test.asc
Start Time: Mon Jan 20 14:50:02 2025
Unknown model type "level" -- ignored
solver = Normal
Maximum thread count: 16
tnom = 27
temp = 27
method = modified trap
Direct Newton iteration for .op point succeeded.
Total elapsed time: 0.850 seconds.

