LTspice 24.0.12 for Windows
Circuit: * C:\Users\NAGARAJ V REDDY\Documents\NES\1SEM\NNMHA\Neuro-transistor-Simulation-with-Memristor-based-Memcapacitor-using-LTSPICE\Neurotransistor-main\Neurotransistor-main\memNeuroTransistor.asc
Start Time: Sun Jan 19 12:30:41 2025
solver = Normal
Maximum thread count: 16
tnom = 27
temp = 27
method = modified trap
Model "u1:nt": Oxide thickness thinner than recommended for a level 3 MOSFET.
Direct Newton iteration for .op point succeeded.
Total elapsed time: 9.778 seconds.

