LTspice 24.0.12 for Windows
Circuit: * C:\Users\dhanu\OneDrive\Documents\My files\GITHUB\Neuro-transistor-Simulation-with-Memristor-based-Memcapacitor-using-LTSPICE\src\Task 9 test\neuro_memristor _test.asc
Start Time: Sun Jan 19 18:01:16 2025
solver = Normal
Maximum thread count: 16
tnom = 27
temp = 27
method = modified trap
Limiting rise time of source v to 1e-09
Limiting fall time of source v to 1e-09
WARNING: Node VG is floating.
WARNING: Node X is floating and connected to current source G:X2:U3:X.  It's .op solution is defined solely by a .ic statement.

Direct Newton iteration for .op point succeeded.
Total elapsed time: 0.335 seconds.

