LTspice 24.0.12 for Windows
Circuit: * C:\Users\dhanu\OneDrive\Documents\My files\GITHUB\Neuro-transistor-Simulation-with-Memristor-based-Memcapacitor-using-LTSPICE\src\Task 9 test\pseudo_memcapacitor.asc
Start Time: Sun Jan 19 17:57:23 2025
solver = Normal
Maximum thread count: 16
tnom = 27
temp = 27
method = modified trap
WARNING: Node BE is floating.
ERROR: Node N001 is floating and connected to current source G:U3:MEM
WARNING: Node SV is floating and connected to current source G:U3:X.  It's .op solution is defined solely by a .ic statement.

WARNING: Less than two connections to node be.  This node is used by cs.
Direct Newton iteration for .op point succeeded.
Total elapsed time: 0.350 seconds.

