LTspice 24.0.12 for Windows
Circuit: * C:\Users\NAGARAJ V REDDY\Documents\NES\1SEM\NNMHA\Neuro-transistor-Simulation-with-Memristor-based-Memcapacitor-using-LTSPICE\src\task4\task4b\mem_drm.asc
Start Time: Tue Jan 28 19:09:50 2025
solver = Normal
Maximum thread count: 16



WARNING: Node X is floating and connected to current source G:U1:X.  It's .op solution is defined solely by a .ic statement.

WARNING: Less than two connections to node dxdt.  This node is used by e:u1:x.
Direct Newton iteration for .op point succeeded.
.step vx=-2.5
Changing Tseed to 1e-08
Changing Tseed to 1e-10
Changing Tseed to 1e-07
Changing Tseed to 1e-11
Changing Tseed to 1e-06
Changing Tseed to 1e-12
Changing Tseed to 1e-05
Changing Tseed to 1e-13
Changing Tseed to 0.0001
Changing Tseed to 1e-14
Changing Tseed to 0.001
Changing Tseed to 1e-15



.step vx=-2.25



.step vx=-2



.step vx=2



.step vx=2.5
tnom = 27
temp = 27
method = modified trap
.step vx=3
Total elapsed time: 0.621 seconds.

