LTspice 24.0.12 for Windows
Circuit: * C:\Users\NAGARAJ V REDDY\Documents\NES\1SEM\NNMHA\Neuro-transistor-Simulation-with-Memristor-based-Memcapacitor-using-LTSPICE\src\task14\cascade_neuro_transistor_new.asc
Start Time: Wed Feb  5 14:17:10 2025
solver = Normal
Maximum thread count: 16
tnom = 27
temp = 27
method = modified trap
WARNING: Node NC_01 is floating.
WARNING: Node NC_03 is floating.
WARNING: Node N002 is floating.

WARNING: Less than two connections to node vpulse5.  This node is used by vpulse5.
WARNING: Less than two connections to node vpulse6.  This node is used by vpulse6.
WARNING: Less than two connections to node nc_02.  This node is used by m2.
WARNING: Less than two connections to node n002.  This node is used by cgb2.
Direct Newton iteration failed to find .op point.  (Use ".option noopiter" to skip.)
Starting Gmin stepping
Gmin = 10
Gmin = 1.07374
Gmin = 0.115292
Gmin = 0.0123794
Gmin = 0.00132923
Gmin = 0.000142725
Gmin = 1.5325e-05
Gmin = 1.6455e-06
Gmin = 1.76685e-07
vernier = 0.5
vernier = 0.25
vernier = 0.125
Gmin = 8.77213e-08
vernier = 0.166667
Gmin = 6.07123e-08
vernier = 0.222222
vernier = 0.296296
Gmin = 3.29802e-08
vernier = 0.395061
vernier = 0.526748
Gmin = 1.26853e-08
vernier = 0.702331
Gmin = 2.93007e-09
vernier = 0.936441
vernier = 1
Gmin = 3.39714e-10
Gmin = 3.64766e-11
Gmin = 3.91664e-12
Gmin = 4.20546e-13
Gmin = 0
Gmin stepping succeeded in finding the operating point.

Total elapsed time: 0.389 seconds.

