LTspice 24.0.12 for Windows
Circuit: * C:\Users\NAGARAJ V REDDY\Documents\NES\1SEM\NNMHA\Neuro-transistor-Simulation-with-Memristor-based-Memcapacitor-using-LTSPICE\src\base\mem_circuit.asc
Start Time: Thu Jan 16 11:01:53 2025
Fatal Error: Expected file name after "file" keyword in PWL

