LTspice 24.0.12 for Windows
Circuit: * C:\Users\NAGARAJ V REDDY\Documents\NES\1SEM\NNMHA\Neuro-transistor-Simulation-with-Memristor-based-Memcapacitor-using-LTSPICE\src\base\mem_circuit.asc
Start Time: Wed Jan 15 20:53:41 2025
solver = Normal
Maximum thread count: 16
tnom = 27
temp = 27
method = modified trap
Fatal Error: Voltage source E:U1:X is shorted making an over-defined circuit matrix...
You will need to correct the circuit or add some series resistance.
