LTspice 24.0.12 for Windows
Circuit: * C:\Users\NAGARAJ V REDDY\Documents\NES\1SEM\NNMHA\Neuro-transistor-Simulation-with-Memristor-based-Memcapacitor-using-LTSPICE\src\base\mem_pot_dep.asc
Start Time: Mon Jan 20 10:17:37 2025
solver = Normal
Maximum thread count: 16
tnom = 27
temp = 27
method = modified trap
Limiting rise time of source vin_reset to 0.001
Limiting fall time of source vin_reset to 0.001
Limiting rise time of source vin_read to 0.0001
Limiting fall time of source vin_read to 0.0001
Limiting rise time of source vin_set to 0.001
Limiting fall time of source vin_set to 0.001
WARNING: Node X is floating and connected to current source G:U1:X.  It's .op solution is defined solely by a .ic statement.

WARNING: Less than two connections to node dxdt.  This node is used by e:u1:x.
Direct Newton iteration for .op point succeeded.
Total elapsed time: 0.527 seconds.

