LTspice 24.0.12 for Windows
Circuit: * C:\Users\dhanu\OneDrive\Documents\My files\GITHUB\Neuro-transistor-Simulation-with-Memristor-based-Memcapacitor-using-LTSPICE\src\base\neuro_memristor_3x1.asc
Start Time: Wed Jan 29 13:33:17 2025
Questionable use of curly braces in ".ic v(sv) = {x0}"
    Error: undefined symbol in: "[x0]"
Questionable use of curly braces in ".ic v(sv) = {x0}"
    Error: undefined symbol in: "[x0]"
Questionable use of curly braces in ".ic v(sv) = {x0}"
    Error: undefined symbol in: "[x0]"
Fatal Error: Trouble parsing initial condition value for V(state1)
