LTspice 24.0.12 for Windows
Circuit: * C:\Users\NAGARAJ V REDDY\Documents\NES\1SEM\NNMHA\Neuro-transistor-Simulation-with-Memristor-based-Memcapacitor-using-LTSPICE\src\base\neuro_memristor.asc
Start Time: Wed Feb  5 20:24:02 2025
solver = Normal
Maximum thread count: 16
tnom = 27
temp = 27
method = modified trap
WARNING: Node STATE is floating and connected to current source G:U1:X.  It's .op solution is defined solely by a .ic statement.

Direct Newton iteration for .op point succeeded.
Total elapsed time: 0.442 seconds.

