LTspice 24.0.12 for Windows
Circuit: * C:\Users\NAGARAJ V REDDY\Documents\NES\1SEM\NNMHA\Neuro-transistor-Simulation-with-Memristor-based-Memcapacitor-using-LTSPICE\src\base\neuro_memristor.asc
Start Time: Thu Feb  6 16:45:56 2025
solver = Normal
Maximum thread count: 16



WARNING: Node STATE is floating and connected to current source G:U1:X.  It's .op solution is defined solely by a .ic statement.

Direct Newton iteration for .op point succeeded.
.step x0=0.1
tnom = 27
temp = 27
method = modified trap
.step x0=0.284
Total elapsed time: 0.602 seconds.

