LTspice 24.0.12 for Windows
Circuit: * C:\Users\NAGARAJ V REDDY\Documents\NES\1SEM\NNMHA\Neuro-transistor-Simulation-with-Memristor-based-Memcapacitor-using-LTSPICE\src\base\neuro_memristor_3x3.asc
Start Time: Tue Feb  4 18:39:19 2025
solver = Normal
Maximum thread count: 16
tnom = 27
temp = 27
method = modified trap
WARNING: Node STATE11 is floating and connected to current source G:U1:X.  It's .op solution is defined solely by a .ic statement.
WARNING: Node STATE12 is floating and connected to current source G:U2:X.  It's .op solution is defined solely by a .ic statement.
WARNING: Node STATE13 is floating and connected to current source G:U3:X.  It's .op solution is defined solely by a .ic statement.
WARNING: Node STATE21 is floating and connected to current source G:U4:X.  It's .op solution is defined solely by a .ic statement.
WARNING: Node STATE22 is floating and connected to current source G:U5:X.  It's .op solution is defined solely by a .ic statement.
WARNING: Node STATE23 is floating and connected to current source G:U6:X.  It's .op solution is defined solely by a .ic statement.
WARNING: Node STATE31 is floating and connected to current source G:U7:X.  It's .op solution is defined solely by a .ic statement.
WARNING: Node STATE32 is floating and connected to current source G:U8:X.  It's .op solution is defined solely by a .ic statement.
WARNING: Node STATE33 is floating and connected to current source G:U9:X.  It's .op solution is defined solely by a .ic statement.

Direct Newton iteration for .op point succeeded.
Total elapsed time: 0.469 seconds.

